107

   C     -0.12349100      0.11069400     -0.34113000
   N      1.02826400     -0.07186000      0.38253000
   C      0.75108100     -0.40930800      1.70542500
   C     -0.61207900     -0.44739000      1.82154400
   N     -1.12378800     -0.12613700      0.56734600
   C      2.34983500      0.04980300     -0.18141100
   C      2.88453300      1.34027100     -0.38415700
   C      2.12368100      2.61176800     -0.03199800
   C      4.17248700      1.42065700     -0.94583500
   H      4.61775200      2.40515000     -1.12089600
   C      4.88521500      0.26688600     -1.28373200
   H      5.88495100      0.35224800     -1.72113600
   C      4.32208800     -0.99859600     -1.07674900
   H      4.88499100     -1.89184900     -1.36156000
   C      3.03709400     -1.13739500     -0.52661800
   C      2.37440900     -2.50398100     -0.39548800
   C     -2.52298500     -0.03739500      0.23176300
   C     -3.19737900      1.17644500      0.49647700
   C     -2.46443300      2.38727400      1.06088300
   C     -4.55525500      1.24617300      0.14168600
   H     -5.11203000      2.17039900      0.32243300
   C     -5.20171700      0.15496000     -0.45189700
   H     -6.25938200      0.23162900     -0.72335300
   C     -4.50168000     -1.02829200     -0.70833500
   H     -5.01491100     -1.86988300     -1.18413800
   C     -3.14096100     -1.15256600     -0.37364400
   C     -2.38087200     -2.43210300     -0.69593800
   H     -1.35542600     -2.33321500     -0.29924600
   C     -2.26658200     -2.62363000     -2.22081100
   C     -3.02045900     -3.66000400     -0.02217900
   H     -1.54495900      2.02893000      1.55769900
   C     -3.28368300      3.15096900      2.11457000
   C     -2.03233000      3.31938700     -0.09049300
   H      1.15088000      2.32447300      0.40336300
   C      1.83135000      3.44331500     -1.29593800
   C      2.87736700      3.44133200      1.02438900
   H      1.61236900     -2.44055000      0.40214300
   C      3.35276700     -3.62143000     -0.00040000
   C      1.63902500     -2.85046200     -1.70777100
   H      1.54243400     -0.58589800      2.42860900
   H     -1.25937800     -0.67012400      2.66516600
   H     -1.41079700      2.77978200     -0.82742500
   H     -1.44897600      4.17207000      0.30009500
   H     -2.91450900      3.71726200     -0.62223900
   H     -2.66905200      3.95287900      2.55789400
   H     -3.62147900      2.48459200      2.92646700
   H     -4.17510600      3.62993700      1.67376200
   H      2.35474300     -2.92636000     -2.54498000
   H      0.90049000     -2.07420500     -1.97086900
   H      1.11100600     -3.81604800     -1.61288600
   H      3.91703900     -3.36419300      0.91224000
   H      4.07994200     -3.83419400     -0.80321900
   H      2.79659400     -4.55532400      0.18861400
   H     -1.78271400     -1.75357900     -2.69801800
   H     -3.26112300     -2.75045200     -2.68367900
   H     -1.66597700     -3.52027600     -2.45293500
   H     -4.04357100     -3.83939200     -0.39610100
   H     -3.07768900     -3.53350400      1.07258700
   H     -2.42429200     -4.56415100     -0.23528600
   H      3.06130100      2.85354000      1.94004600
   H      2.28952200      4.33448400      1.29888100
   H      3.85392900      3.78707800      0.64265900
   H      2.76490700      3.78875500     -1.77390000
   H      1.22998400      4.33279400     -1.03924800
   H      1.27135000      2.85172000     -2.04170300
  Cu     -0.31717800      0.63498900     -2.09285800
   F     -0.55254500      1.22018000     -3.78709700
   C     -1.87185600     -0.58094400     -8.28909300
   H     -2.55791600     -0.16086000     -9.04904500
   C     -2.00312500     -2.11271900     -8.25297500
   H     -3.06011900     -2.37218900     -8.03810600
   H     -1.76719700     -2.54799300     -9.24239200
   C     -1.11117000     -2.73509300     -7.16594500
   H     -1.28728400     -3.82658900     -7.11162200
   H     -0.04869900     -2.60806500     -7.44484000
   C     -1.36468100     -2.09201500     -5.79295500
   H     -2.39041800     -2.37601800     -5.47380800
   C     -1.25551800     -0.54618900     -5.79874300
   H     -1.70241800     -0.21277800     -4.84008700
   B      0.20046900      0.11937700     -5.61704600
   C      0.72117800      1.44046900     -6.36260500
   H     -0.09994900      2.07716700     -6.74122300
   C      1.59234000      0.97738800     -7.58563500
   H      1.07362800      1.22473600     -8.53067400
   C      1.92044200     -0.53032900     -7.61007500
   H      1.02799800     -1.05967100     -7.98764600
   H      2.71803200     -0.72902400     -8.35159200
   C      2.30798500     -1.15979100     -6.25331200
   H      2.22097900     -2.25785500     -6.35497200
   H      3.37870400     -0.96076700     -6.04682600
   H      2.53330200      1.56239000     -7.60017400
   C      1.58609100      2.30973200     -5.41049800
   H      0.94363200      2.69649300     -4.60250300
   H      1.98455700      3.18550500     -5.96464700
   C      2.75966800      1.53365700     -4.79181900
   C      2.32871300      0.22603700     -4.11316800
   H      1.76313400      0.46820200     -3.18995600
   H      3.22846800     -0.32848200     -3.77748800
   H      3.50136100      1.30032500     -5.58197800
   H      3.29236700      2.17161100     -4.06039300
   C      1.45843900     -0.67573800     -5.02120200
   H      1.17099000     -1.56610400     -4.43011200
   H     -0.68021400     -2.52750500     -5.04138600
   H     -0.84802600     -0.30482700     -8.60644300
   C     -2.16188500      0.03064900     -6.91035200
   H     -3.22518000     -0.17745900     -6.66367800
   H     -2.06308500      1.13017100     -6.95218300
