99

C                     1.81647   4.30407   0.47062
C                     0.60427   3.65641   0.73376
C                    -0.51131   3.98665  -0.04803
C                    -0.41388   4.94305  -1.05534
C                     0.79972   5.58504  -1.30736
C                     1.91697   5.2592   -0.54084
C                     0.52543   2.61301   1.8183
C                    -0.61636   2.77683   2.84561
C                    -0.71729   1.46099   3.62528
C                    -0.80715   0.32227   2.58889
C                    -0.62398  -1.08563   3.09659
C                    -1.46166  -2.10624   2.62309
C                    -1.27632  -3.42911   3.01871
C                    -0.25575  -3.76237   3.90869
C                     0.56409  -2.75354   4.4132
C                     0.37749  -1.43058   4.01549
P                     0.35614   0.83447   1.18615
C                     2.04326   0.16395   1.6145
C                     2.25525  -1.23601   1.02816
P                     1.7779   -1.29894  -0.76674
Co                   -0.04315   0.01658  -0.97935
N                    -1.44846  -1.29024  -0.572
C                    -2.7475   -1.04137  -0.6811
O                    -3.68313  -1.68244  -0.1637
C                     1.87978  -3.15388  -1.13734
C                     2.88126  -3.25963  -2.30714
C                     4.00605  -2.25551  -2.03118
C                     3.34004  -0.89403  -1.75567
C                     4.18082   0.19137  -1.1305
C                     3.92723   1.5323   -1.45229
C                     4.63067   2.56492  -0.83822
C                     5.60955   2.27888   0.1128
C                     5.88268   0.94996   0.43282
C                     5.17755  -0.0823   -0.18411
C                     0.53878  -3.81655  -1.32037
C                    -0.01475  -4.56546  -0.27529
C                    -1.27674  -5.1454   -0.39749
C                    -2.0057   -4.99109  -1.57472
C                    -1.46475  -4.24592  -2.62266
C                    -0.2085   -3.66124  -2.49391
O                    -2.93889   1.82238   0.69907
C                    -3.97894   1.73208   0.04789
N                    -4.14472   0.97552  -1.05872
C                    -5.48699   1.0665   -1.63901
C                    -6.31892   1.71128  -0.51417
C                    -5.27744   2.48031   0.31157
C                    -3.1031    0.13203  -1.63256
C                    -1.6879    0.79619  -2.04369
H                    -1.39722   0.2644   -2.9224
H                     2.20443   0.16467   2.69399
H                     2.75649   0.86862   1.17832
H                     3.28514  -1.57364   1.16344
H                     1.60395  -1.95882   1.52759
H                     2.39364  -3.01195  -3.25461
H                     3.25576  -4.28278  -2.39359
H                     4.58156  -2.59217  -1.16427
H                     4.70249  -2.17824  -2.87036
H                     0.18135  -3.06036  -3.30724
H                    -2.02926  -4.10822  -3.53819
H                    -2.98893  -5.4369   -1.67165
H                    -1.68835  -5.71492   0.4281
H                     0.53975  -4.68342   0.64973
H                     3.15493   1.76485  -2.1757
H                     4.40716   3.59239  -1.09895
H                     6.15636   3.0816    0.59424
H                     6.64677   0.71281   1.16475
H                     5.40918  -1.10566   0.08373
H                    -1.59086   1.44487   4.28409
H                     0.16672   1.34096   4.25984
H                    -0.41349   3.62801   3.50191
H                    -1.5595    2.9625    2.32952
H                    -2.26065  -1.86521   1.9308
H                    -1.9303   -4.19966   2.62637
H                    -0.1076   -4.79231   4.21316
H                     1.35179  -2.99475   5.11856
H                     1.02521  -0.66558   4.42583
H                     2.6937    4.05096   1.05634
H                     2.86693   5.74842  -0.72699
H                     0.87292   6.32825  -2.09342
H                    -1.28657   5.18262  -1.65271
H                    -1.44946   3.47337   0.12422
H                     1.47165   2.62106   2.368
H                    -1.77793   0.3903    2.09594
H                     2.93826  -0.51524  -2.6992
H                     2.35863  -3.5853   -0.25306
C                    -2.14668   2.27214  -2.74229
H                    -1.28721  -2.1449   -0.05155
H                    -5.84649   0.07258  -1.91046
H                    -5.46629   1.68479  -2.54415
H                    -7.11924   2.34079  -0.90248
H                    -6.76838   0.92729   0.09913
H                    -5.48564   2.51936   1.38075
H                    -5.14596   3.50906  -0.04118
H                    -1.22078   2.71631  -3.10919
H                    -2.85206   2.20108  -3.57669
H                    -2.57256   2.94278  -1.99646
H                    -3.57203  -0.35223  -2.49471
H                     0.95938   1.01013  -1.53085
H                    -0.87253   1.2742   -0.8943
